1005
H450Si2523 cell written by cluster.py
Si    2.750000    0.000000    8.250000
Si    0.000000    2.750000    8.250000
Si    4.125000    1.375000    9.625000
Si    1.375000    4.125000    9.625000
Si    0.000000    0.000000   11.000000
Si    2.750000    2.750000   11.000000
Si    1.375000    1.375000   12.375000
Si    4.125000    4.125000   12.375000
Si    2.750000    5.500000    8.250000
Si    0.000000    8.250000    8.250000
Si    4.125000    6.875000    9.625000
Si    1.375000    9.625000    9.625000
Si    0.000000    5.500000   11.000000
Si    2.750000    8.250000   11.000000
Si    1.375000    6.875000   12.375000
Si    4.125000    9.625000   12.375000
Si    2.750000   11.000000    8.250000
Si    0.000000   13.750000    8.250000
Si    4.125000   12.375000    9.625000
Si    1.375000   15.125000    9.625000
Si    0.000000   11.000000   11.000000
Si    2.750000   13.750000   11.000000
Si    1.375000   12.375000   12.375000
Si    4.125000   15.125000   12.375000
Si    2.750000   16.500000    8.250000
Si    0.000000   19.250000    8.250000
Si    4.125000   17.875000    9.625000
Si    1.375000   20.625000    9.625000
Si    0.000000   16.500000   11.000000
Si    2.750000   19.250000   11.000000
Si    1.375000   17.875000   12.375000
Si    4.125000   20.625000   12.375000
Si    2.750000   22.000000    8.250000
Si    0.000000   24.750000    8.250000
Si    4.125000   23.375000    9.625000
Si    1.375000   26.125000    9.625000
Si    0.000000   22.000000   11.000000
Si    2.750000   24.750000   11.000000
Si    1.375000   23.375000   12.375000
Si    4.125000   26.125000   12.375000
Si    2.750000   27.500000    8.250000
Si    0.000000   30.250000    8.250000
Si    4.125000   28.875000    9.625000
Si    1.375000   31.625000    9.625000
Si    0.000000   27.500000   11.000000
Si    2.750000   30.250000   11.000000
Si    1.375000   28.875000   12.375000
Si    4.125000   31.625000   12.375000
Si    2.750000   33.000000    8.250000
Si    0.000000   35.750000    8.250000
Si    4.125000   34.375000    9.625000
Si    1.375000   37.125000    9.625000
Si    0.000000   33.000000   11.000000
Si    2.750000   35.750000   11.000000
Si    1.375000   34.375000   12.375000
Si    4.125000   37.125000   12.375000
Si    2.750000   38.500000    8.250000
Si    0.000000   41.250000    8.250000
Si    4.125000   39.875000    9.625000
Si    1.375000   42.625000    9.625000
Si    0.000000   38.500000   11.000000
Si    2.750000   41.250000   11.000000
Si    1.375000   39.875000   12.375000
Si    4.125000   42.625000   12.375000
Si    2.750000   44.000000    8.250000
Si    0.000000   46.750000    8.250000
Si    4.125000   45.375000    9.625000
Si    1.375000   48.125000    9.625000
Si    0.000000   44.000000   11.000000
Si    2.750000   46.750000   11.000000
Si    1.375000   45.375000   12.375000
Si    4.125000   48.125000   12.375000
Si    2.750000   49.500000    8.250000
Si    0.000000   52.250000    8.250000
Si    4.125000   50.875000    9.625000
Si    1.375000   53.625000    9.625000
Si    0.000000   49.500000   11.000000
Si    2.750000   52.250000   11.000000
Si    1.375000   50.875000   12.375000
Si    4.125000   53.625000   12.375000
Si    8.250000    0.000000    8.250000
Si    5.500000    2.750000    8.250000
Si    9.625000    1.375000    9.625000
Si    6.875000    4.125000    9.625000
Si    5.500000    0.000000   11.000000
Si    8.250000    2.750000   11.000000
Si    6.875000    1.375000   12.375000
Si    9.625000    4.125000   12.375000
Si    8.250000    5.500000    8.250000
Si    5.500000    8.250000    8.250000
Si    9.625000    6.875000    9.625000
Si    6.875000    9.625000    9.625000
Si    5.500000    5.500000   11.000000
Si    8.250000    8.250000   11.000000
Si    6.875000    6.875000   12.375000
Si    9.625000    9.625000   12.375000
Si    8.250000   11.000000    8.250000
Si    5.500000   13.750000    8.250000
Si    9.625000   12.375000    9.625000
Si    6.875000   15.125000    9.625000
Si    5.500000   11.000000   11.000000
Si    8.250000   13.750000   11.000000
Si    6.875000   12.375000   12.375000
Si    9.625000   15.125000   12.375000
Si    8.250000   16.500000    8.250000
Si    5.500000   19.250000    8.250000
Si    9.625000   17.875000    9.625000
Si    6.875000   20.625000    9.625000
Si    5.500000   16.500000   11.000000
Si    8.250000   19.250000   11.000000
Si    6.875000   17.875000   12.375000
Si    9.625000   20.625000   12.375000
Si    8.250000   22.000000    8.250000
Si    5.500000   24.750000    8.250000
Si    9.625000   23.375000    9.625000
Si    6.875000   26.125000    9.625000
Si    5.500000   22.000000   11.000000
Si    8.250000   24.750000   11.000000
Si    6.875000   23.375000   12.375000
Si    9.625000   26.125000   12.375000
Si    8.250000   27.500000    8.250000
Si    5.500000   30.250000    8.250000
Si    9.625000   28.875000    9.625000
Si    6.875000   31.625000    9.625000
Si    5.500000   27.500000   11.000000
Si    8.250000   30.250000   11.000000
Si    6.875000   28.875000   12.375000
Si    9.625000   31.625000   12.375000
Si    8.250000   33.000000    8.250000
Si    5.500000   35.750000    8.250000
Si    9.625000   34.375000    9.625000
Si    6.875000   37.125000    9.625000
Si    5.500000   33.000000   11.000000
Si    8.250000   35.750000   11.000000
Si    6.875000   34.375000   12.375000
Si    9.625000   37.125000   12.375000
Si    8.250000   38.500000    8.250000
Si    5.500000   41.250000    8.250000
Si    9.625000   39.875000    9.625000
Si    6.875000   42.625000    9.625000
Si    5.500000   38.500000   11.000000
Si    8.250000   41.250000   11.000000
Si    6.875000   39.875000   12.375000
Si    9.625000   42.625000   12.375000
Si    8.250000   44.000000    8.250000
Si    5.500000   46.750000    8.250000
Si    9.625000   45.375000    9.625000
Si    6.875000   48.125000    9.625000
Si    5.500000   44.000000   11.000000
Si    8.250000   46.750000   11.000000
Si    6.875000   45.375000   12.375000
Si    9.625000   48.125000   12.375000
Si    8.250000   49.500000    8.250000
Si    5.500000   52.250000    8.250000
Si    9.625000   50.875000    9.625000
Si    6.875000   53.625000    9.625000
Si    5.500000   49.500000   11.000000
Si    8.250000   52.250000   11.000000
Si    6.875000   50.875000   12.375000
Si    9.625000   53.625000   12.375000
Si   13.750000    0.000000    8.250000
Si   11.000000    2.750000    8.250000
Si   15.125000    1.375000    9.625000
Si   12.375000    4.125000    9.625000
Si   11.000000    0.000000   11.000000
Si   13.750000    2.750000   11.000000
Si   12.375000    1.375000   12.375000
Si   15.125000    4.125000   12.375000
Si   13.750000    5.500000    8.250000
Si   11.000000    8.250000    8.250000
Si   15.125000    6.875000    9.625000
Si   12.375000    9.625000    9.625000
Si   11.000000    5.500000   11.000000
Si   13.750000    8.250000   11.000000
Si   12.375000    6.875000   12.375000
Si   15.125000    9.625000   12.375000
Si   13.750000   11.000000    8.250000
Si   11.000000   13.750000    8.250000
Si   15.125000   12.375000    9.625000
Si   12.375000   15.125000    9.625000
Si   11.000000   11.000000   11.000000
Si   13.750000   13.750000   11.000000
Si   12.375000   12.375000   12.375000
Si   15.125000   15.125000   12.375000
Si   13.750000   16.500000    8.250000
Si   11.000000   19.250000    8.250000
Si   15.125000   17.875000    9.625000
Si   12.375000   20.625000    9.625000
Si   11.000000   16.500000   11.000000
Si   13.750000   19.250000   11.000000
Si   12.375000   17.875000   12.375000
Si   15.125000   20.625000   12.375000
Si   13.750000   22.000000    8.250000
Si   11.000000   24.750000    8.250000
Si   15.125000   23.375000    9.625000
Si   12.375000   26.125000    9.625000
Si   11.000000   22.000000   11.000000
Si   13.750000   24.750000   11.000000
Si   12.375000   23.375000   12.375000
Si   15.125000   26.125000   12.375000
Si   13.750000   27.500000    8.250000
Si   11.000000   30.250000    8.250000
Si   15.125000   28.875000    9.625000
Si   12.375000   31.625000    9.625000
Si   11.000000   27.500000   11.000000
Si   13.750000   30.250000   11.000000
Si   12.375000   28.875000   12.375000
Si   15.125000   31.625000   12.375000
Si   13.750000   33.000000    8.250000
Si   11.000000   35.750000    8.250000
Si   15.125000   34.375000    9.625000
Si   12.375000   37.125000    9.625000
Si   11.000000   33.000000   11.000000
Si   13.750000   35.750000   11.000000
Si   12.375000   34.375000   12.375000
Si   15.125000   37.125000   12.375000
Si   13.750000   38.500000    8.250000
Si   11.000000   41.250000    8.250000
Si   15.125000   39.875000    9.625000
Si   12.375000   42.625000    9.625000
Si   11.000000   38.500000   11.000000
Si   13.750000   41.250000   11.000000
Si   12.375000   39.875000   12.375000
Si   15.125000   42.625000   12.375000
Si   13.750000   44.000000    8.250000
Si   11.000000   46.750000    8.250000
Si   15.125000   45.375000    9.625000
Si   12.375000   48.125000    9.625000
Si   11.000000   44.000000   11.000000
Si   13.750000   46.750000   11.000000
Si   12.375000   45.375000   12.375000
Si   15.125000   48.125000   12.375000
Si   13.750000   49.500000    8.250000
Si   11.000000   52.250000    8.250000
Si   15.125000   50.875000    9.625000
Si   12.375000   53.625000    9.625000
Si   11.000000   49.500000   11.000000
Si   13.750000   52.250000   11.000000
Si   12.375000   50.875000   12.375000
Si   15.125000   53.625000   12.375000
Si   19.250000    0.000000    8.250000
Si   16.500000    2.750000    8.250000
Si   20.625000    1.375000    9.625000
Si   17.875000    4.125000    9.625000
Si   16.500000    0.000000   11.000000
Si   19.250000    2.750000   11.000000
Si   17.875000    1.375000   12.375000
Si   20.625000    4.125000   12.375000
Si   19.250000    5.500000    8.250000
Si   16.500000    8.250000    8.250000
Si   20.625000    6.875000    9.625000
Si   17.875000    9.625000    9.625000
Si   16.500000    5.500000   11.000000
Si   19.250000    8.250000   11.000000
Si   17.875000    6.875000   12.375000
Si   20.625000    9.625000   12.375000
Si   19.250000   11.000000    8.250000
Si   16.500000   13.750000    8.250000
Si   20.625000   12.375000    9.625000
Si   17.875000   15.125000    9.625000
Si   16.500000   11.000000   11.000000
Si   19.250000   13.750000   11.000000
Si   17.875000   12.375000   12.375000
Si   20.625000   15.125000   12.375000
Si   19.250000   16.500000    8.250000
Si   16.500000   19.250000    8.250000
Si   20.625000   17.875000    9.625000
Si   17.875000   20.625000    9.625000
Si   16.500000   16.500000   11.000000
Si   19.250000   19.250000   11.000000
Si   17.875000   17.875000   12.375000
Si   20.625000   20.625000   12.375000
Si   19.250000   22.000000    8.250000
Si   16.500000   24.750000    8.250000
Si   20.625000   23.375000    9.625000
Si   17.875000   26.125000    9.625000
Si   16.500000   22.000000   11.000000
Si   19.250000   24.750000   11.000000
Si   17.875000   23.375000   12.375000
Si   20.625000   26.125000   12.375000
Si   19.250000   27.500000    8.250000
Si   16.500000   30.250000    8.250000
Si   20.625000   28.875000    9.625000
Si   17.875000   31.625000    9.625000
Si   16.500000   27.500000   11.000000
Si   19.250000   30.250000   11.000000
Si   17.875000   28.875000   12.375000
Si   20.625000   31.625000   12.375000
Si   19.250000   33.000000    8.250000
Si   16.500000   35.750000    8.250000
Si   20.625000   34.375000    9.625000
Si   17.875000   37.125000    9.625000
Si   16.500000   33.000000   11.000000
Si   19.250000   35.750000   11.000000
Si   17.875000   34.375000   12.375000
Si   20.625000   37.125000   12.375000
Si   19.250000   38.500000    8.250000
Si   16.500000   41.250000    8.250000
Si   20.625000   39.875000    9.625000
Si   17.875000   42.625000    9.625000
Si   16.500000   38.500000   11.000000
Si   19.250000   41.250000   11.000000
Si   17.875000   39.875000   12.375000
Si   20.625000   42.625000   12.375000
Si   19.250000   44.000000    8.250000
Si   16.500000   46.750000    8.250000
Si   20.625000   45.375000    9.625000
Si   17.875000   48.125000    9.625000
Si   16.500000   44.000000   11.000000
Si   19.250000   46.750000   11.000000
Si   17.875000   45.375000   12.375000
Si   20.625000   48.125000   12.375000
Si   19.250000   49.500000    8.250000
Si   16.500000   52.250000    8.250000
Si   20.625000   50.875000    9.625000
Si   17.875000   53.625000    9.625000
Si   16.500000   49.500000   11.000000
Si   19.250000   52.250000   11.000000
Si   17.875000   50.875000   12.375000
Si   20.625000   53.625000   12.375000
Si   24.750000    0.000000    8.250000
Si   22.000000    2.750000    8.250000
Si   26.125000    1.375000    9.625000
Si   23.375000    4.125000    9.625000
Si   22.000000    0.000000   11.000000
Si   24.750000    2.750000   11.000000
Si   23.375000    1.375000   12.375000
Si   26.125000    4.125000   12.375000
Si   24.750000    5.500000    8.250000
Si   22.000000    8.250000    8.250000
Si   26.125000    6.875000    9.625000
Si   23.375000    9.625000    9.625000
Si   22.000000    5.500000   11.000000
Si   24.750000    8.250000   11.000000
Si   23.375000    6.875000   12.375000
Si   26.125000    9.625000   12.375000
Si   24.750000   11.000000    8.250000
Si   22.000000   13.750000    8.250000
Si   26.125000   12.375000    9.625000
Si   23.375000   15.125000    9.625000
Si   22.000000   11.000000   11.000000
Si   24.750000   13.750000   11.000000
Si   23.375000   12.375000   12.375000
Si   26.125000   15.125000   12.375000
Si   24.750000   16.500000    8.250000
Si   22.000000   19.250000    8.250000
Si   26.125000   17.875000    9.625000
Si   23.375000   20.625000    9.625000
Si   22.000000   16.500000   11.000000
Si   24.750000   19.250000   11.000000
Si   23.375000   17.875000   12.375000
Si   26.125000   20.625000   12.375000
Si   24.750000   22.000000    8.250000
Si   22.000000   24.750000    8.250000
Si   26.125000   23.375000    9.625000
Si   23.375000   26.125000    9.625000
Si   22.000000   22.000000   11.000000
Si   24.750000   24.750000   11.000000
Si   23.375000   23.375000   12.375000
Si   26.125000   26.125000   12.375000
Si   24.750000   27.500000    8.250000
Si   22.000000   30.250000    8.250000
Si   26.125000   28.875000    9.625000
Si   23.375000   31.625000    9.625000
Si   22.000000   27.500000   11.000000
Si   24.750000   30.250000   11.000000
Si   23.375000   28.875000   12.375000
Si   26.125000   31.625000   12.375000
Si   24.750000   33.000000    8.250000
Si   22.000000   35.750000    8.250000
Si   26.125000   34.375000    9.625000
Si   23.375000   37.125000    9.625000
Si   22.000000   33.000000   11.000000
Si   24.750000   35.750000   11.000000
Si   23.375000   34.375000   12.375000
Si   26.125000   37.125000   12.375000
Si   24.750000   38.500000    8.250000
Si   22.000000   41.250000    8.250000
Si   26.125000   39.875000    9.625000
Si   23.375000   42.625000    9.625000
Si   22.000000   38.500000   11.000000
Si   24.750000   41.250000   11.000000
Si   23.375000   39.875000   12.375000
Si   26.125000   42.625000   12.375000
Si   24.750000   44.000000    8.250000
Si   22.000000   46.750000    8.250000
Si   26.125000   45.375000    9.625000
Si   23.375000   48.125000    9.625000
Si   22.000000   44.000000   11.000000
Si   24.750000   46.750000   11.000000
Si   23.375000   45.375000   12.375000
Si   26.125000   48.125000   12.375000
Si   24.750000   49.500000    8.250000
Si   22.000000   52.250000    8.250000
Si   26.125000   50.875000    9.625000
Si   23.375000   53.625000    9.625000
Si   22.000000   49.500000   11.000000
Si   24.750000   52.250000   11.000000
Si   23.375000   50.875000   12.375000
Si   26.125000   53.625000   12.375000
Si   30.250000    0.000000    8.250000
Si   27.500000    2.750000    8.250000
Si   31.625000    1.375000    9.625000
Si   28.875000    4.125000    9.625000
Si   27.500000    0.000000   11.000000
Si   30.250000    2.750000   11.000000
Si   28.875000    1.375000   12.375000
Si   31.625000    4.125000   12.375000
Si   30.250000    5.500000    8.250000
Si   27.500000    8.250000    8.250000
Si   31.625000    6.875000    9.625000
Si   28.875000    9.625000    9.625000
Si   27.500000    5.500000   11.000000
Si   30.250000    8.250000   11.000000
Si   28.875000    6.875000   12.375000
Si   31.625000    9.625000   12.375000
Si   30.250000   11.000000    8.250000
Si   27.500000   13.750000    8.250000
Si   31.625000   12.375000    9.625000
Si   28.875000   15.125000    9.625000
Si   27.500000   11.000000   11.000000
Si   30.250000   13.750000   11.000000
Si   28.875000   12.375000   12.375000
Si   31.625000   15.125000   12.375000
Si   30.250000   16.500000    8.250000
Si   27.500000   19.250000    8.250000
Si   31.625000   17.875000    9.625000
Si   28.875000   20.625000    9.625000
Si   27.500000   16.500000   11.000000
Si   30.250000   19.250000   11.000000
Si   28.875000   17.875000   12.375000
Si   31.625000   20.625000   12.375000
Si   30.250000   22.000000    8.250000
Si   27.500000   24.750000    8.250000
Si   31.625000   23.375000    9.625000
Si   28.875000   26.125000    9.625000
Si   27.500000   22.000000   11.000000
Si   30.250000   24.750000   11.000000
Si   28.875000   23.375000   12.375000
Si   31.625000   26.125000   12.375000
Si   30.250000   27.500000    8.250000
Si   27.500000   30.250000    8.250000
Si   31.625000   28.875000    9.625000
Si   28.875000   31.625000    9.625000
Si   27.500000   27.500000   11.000000
Si   30.250000   30.250000   11.000000
Si   28.875000   28.875000   12.375000
Si   31.625000   31.625000   12.375000
Si   30.250000   33.000000    8.250000
Si   27.500000   35.750000    8.250000
Si   31.625000   34.375000    9.625000
Si   28.875000   37.125000    9.625000
Si   27.500000   33.000000   11.000000
Si   30.250000   35.750000   11.000000
Si   28.875000   34.375000   12.375000
Si   31.625000   37.125000   12.375000
Si   30.250000   38.500000    8.250000
Si   27.500000   41.250000    8.250000
Si   31.625000   39.875000    9.625000
Si   28.875000   42.625000    9.625000
Si   27.500000   38.500000   11.000000
Si   30.250000   41.250000   11.000000
Si   28.875000   39.875000   12.375000
Si   31.625000   42.625000   12.375000
Si   30.250000   44.000000    8.250000
Si   27.500000   46.750000    8.250000
Si   31.625000   45.375000    9.625000
Si   28.875000   48.125000    9.625000
Si   27.500000   44.000000   11.000000
Si   30.250000   46.750000   11.000000
Si   28.875000   45.375000   12.375000
Si   31.625000   48.125000   12.375000
Si   30.250000   49.500000    8.250000
Si   27.500000   52.250000    8.250000
Si   31.625000   50.875000    9.625000
Si   28.875000   53.625000    9.625000
Si   27.500000   49.500000   11.000000
Si   30.250000   52.250000   11.000000
Si   28.875000   50.875000   12.375000
Si   31.625000   53.625000   12.375000
Si   35.750000    0.000000    8.250000
Si   33.000000    2.750000    8.250000
Si   37.125000    1.375000    9.625000
Si   34.375000    4.125000    9.625000
Si   33.000000    0.000000   11.000000
Si   35.750000    2.750000   11.000000
Si   34.375000    1.375000   12.375000
Si   37.125000    4.125000   12.375000
Si   35.750000    5.500000    8.250000
Si   33.000000    8.250000    8.250000
Si   37.125000    6.875000    9.625000
Si   34.375000    9.625000    9.625000
Si   33.000000    5.500000   11.000000
Si   35.750000    8.250000   11.000000
Si   34.375000    6.875000   12.375000
Si   37.125000    9.625000   12.375000
Si   35.750000   11.000000    8.250000
Si   33.000000   13.750000    8.250000
Si   37.125000   12.375000    9.625000
Si   34.375000   15.125000    9.625000
Si   33.000000   11.000000   11.000000
Si   35.750000   13.750000   11.000000
Si   34.375000   12.375000   12.375000
Si   37.125000   15.125000   12.375000
Si   35.750000   16.500000    8.250000
Si   33.000000   19.250000    8.250000
Si   37.125000   17.875000    9.625000
Si   34.375000   20.625000    9.625000
Si   33.000000   16.500000   11.000000
Si   35.750000   19.250000   11.000000
Si   34.375000   17.875000   12.375000
Si   37.125000   20.625000   12.375000
Si   35.750000   22.000000    8.250000
Si   33.000000   24.750000    8.250000
Si   37.125000   23.375000    9.625000
Si   34.375000   26.125000    9.625000
Si   33.000000   22.000000   11.000000
Si   35.750000   24.750000   11.000000
Si   34.375000   23.375000   12.375000
Si   37.125000   26.125000   12.375000
Si   35.750000   27.500000    8.250000
Si   33.000000   30.250000    8.250000
Si   37.125000   28.875000    9.625000
Si   34.375000   31.625000    9.625000
Si   33.000000   27.500000   11.000000
Si   35.750000   30.250000   11.000000
Si   34.375000   28.875000   12.375000
Si   37.125000   31.625000   12.375000
Si   35.750000   33.000000    8.250000
Si   33.000000   35.750000    8.250000
Si   37.125000   34.375000    9.625000
Si   34.375000   37.125000    9.625000
Si   33.000000   33.000000   11.000000
Si   35.750000   35.750000   11.000000
Si   34.375000   34.375000   12.375000
Si   37.125000   37.125000   12.375000
Si   35.750000   38.500000    8.250000
Si   33.000000   41.250000    8.250000
Si   37.125000   39.875000    9.625000
Si   34.375000   42.625000    9.625000
Si   33.000000   38.500000   11.000000
Si   35.750000   41.250000   11.000000
Si   34.375000   39.875000   12.375000
Si   37.125000   42.625000   12.375000
Si   35.750000   44.000000    8.250000
Si   33.000000   46.750000    8.250000
Si   37.125000   45.375000    9.625000
Si   34.375000   48.125000    9.625000
Si   33.000000   44.000000   11.000000
Si   35.750000   46.750000   11.000000
Si   34.375000   45.375000   12.375000
Si   37.125000   48.125000   12.375000
Si   35.750000   49.500000    8.250000
Si   33.000000   52.250000    8.250000
Si   37.125000   50.875000    9.625000
Si   34.375000   53.625000    9.625000
Si   33.000000   49.500000   11.000000
Si   35.750000   52.250000   11.000000
Si   34.375000   50.875000   12.375000
Si   37.125000   53.625000   12.375000
Si   41.250000    0.000000    8.250000
Si   38.500000    2.750000    8.250000
Si   42.625000    1.375000    9.625000
Si   39.875000    4.125000    9.625000
Si   38.500000    0.000000   11.000000
Si   41.250000    2.750000   11.000000
Si   39.875000    1.375000   12.375000
Si   42.625000    4.125000   12.375000
Si   41.250000    5.500000    8.250000
Si   38.500000    8.250000    8.250000
Si   42.625000    6.875000    9.625000
Si   39.875000    9.625000    9.625000
Si   38.500000    5.500000   11.000000
Si   41.250000    8.250000   11.000000
Si   39.875000    6.875000   12.375000
Si   42.625000    9.625000   12.375000
Si   41.250000   11.000000    8.250000
Si   38.500000   13.750000    8.250000
Si   42.625000   12.375000    9.625000
Si   39.875000   15.125000    9.625000
Si   38.500000   11.000000   11.000000
Si   41.250000   13.750000   11.000000
Si   39.875000   12.375000   12.375000
Si   42.625000   15.125000   12.375000
Si   41.250000   16.500000    8.250000
Si   38.500000   19.250000    8.250000
Si   42.625000   17.875000    9.625000
Si   39.875000   20.625000    9.625000
Si   38.500000   16.500000   11.000000
Si   41.250000   19.250000   11.000000
Si   39.875000   17.875000   12.375000
Si   42.625000   20.625000   12.375000
Si   41.250000   22.000000    8.250000
Si   38.500000   24.750000    8.250000
Si   42.625000   23.375000    9.625000
Si   39.875000   26.125000    9.625000
Si   38.500000   22.000000   11.000000
Si   41.250000   24.750000   11.000000
Si   39.875000   23.375000   12.375000
Si   42.625000   26.125000   12.375000
Si   41.250000   27.500000    8.250000
Si   38.500000   30.250000    8.250000
Si   42.625000   28.875000    9.625000
Si   39.875000   31.625000    9.625000
Si   38.500000   27.500000   11.000000
Si   41.250000   30.250000   11.000000
Si   39.875000   28.875000   12.375000
Si   42.625000   31.625000   12.375000
Si   41.250000   33.000000    8.250000
Si   38.500000   35.750000    8.250000
Si   42.625000   34.375000    9.625000
Si   39.875000   37.125000    9.625000
Si   38.500000   33.000000   11.000000
Si   41.250000   35.750000   11.000000
Si   39.875000   34.375000   12.375000
Si   42.625000   37.125000   12.375000
Si   41.250000   38.500000    8.250000
Si   38.500000   41.250000    8.250000
Si   42.625000   39.875000    9.625000
Si   39.875000   42.625000    9.625000
Si   38.500000   38.500000   11.000000
Si   41.250000   41.250000   11.000000
Si   39.875000   39.875000   12.375000
Si   42.625000   42.625000   12.375000
Si   41.250000   44.000000    8.250000
Si   38.500000   46.750000    8.250000
Si   42.625000   45.375000    9.625000
Si   39.875000   48.125000    9.625000
Si   38.500000   44.000000   11.000000
Si   41.250000   46.750000   11.000000
Si   39.875000   45.375000   12.375000
Si   42.625000   48.125000   12.375000
Si   41.250000   49.500000    8.250000
Si   38.500000   52.250000    8.250000
Si   42.625000   50.875000    9.625000
Si   39.875000   53.625000    9.625000
Si   38.500000   49.500000   11.000000
Si   41.250000   52.250000   11.000000
Si   39.875000   50.875000   12.375000
Si   42.625000   53.625000   12.375000
Si   46.750000    0.000000    8.250000
Si   44.000000    2.750000    8.250000
Si   48.125000    1.375000    9.625000
Si   45.375000    4.125000    9.625000
Si   44.000000    0.000000   11.000000
Si   46.750000    2.750000   11.000000
Si   45.375000    1.375000   12.375000
Si   48.125000    4.125000   12.375000
Si   46.750000    5.500000    8.250000
Si   44.000000    8.250000    8.250000
Si   48.125000    6.875000    9.625000
Si   45.375000    9.625000    9.625000
Si   44.000000    5.500000   11.000000
Si   46.750000    8.250000   11.000000
Si   45.375000    6.875000   12.375000
Si   48.125000    9.625000   12.375000
Si   46.750000   11.000000    8.250000
Si   44.000000   13.750000    8.250000
Si   48.125000   12.375000    9.625000
Si   45.375000   15.125000    9.625000
Si   44.000000   11.000000   11.000000
Si   46.750000   13.750000   11.000000
Si   45.375000   12.375000   12.375000
Si   48.125000   15.125000   12.375000
Si   46.750000   16.500000    8.250000
Si   44.000000   19.250000    8.250000
Si   48.125000   17.875000    9.625000
Si   45.375000   20.625000    9.625000
Si   44.000000   16.500000   11.000000
Si   46.750000   19.250000   11.000000
Si   45.375000   17.875000   12.375000
Si   48.125000   20.625000   12.375000
Si   46.750000   22.000000    8.250000
Si   44.000000   24.750000    8.250000
Si   48.125000   23.375000    9.625000
Si   45.375000   26.125000    9.625000
Si   44.000000   22.000000   11.000000
Si   46.750000   24.750000   11.000000
Si   45.375000   23.375000   12.375000
Si   48.125000   26.125000   12.375000
Si   46.750000   27.500000    8.250000
Si   44.000000   30.250000    8.250000
Si   48.125000   28.875000    9.625000
Si   45.375000   31.625000    9.625000
Si   44.000000   27.500000   11.000000
Si   46.750000   30.250000   11.000000
Si   45.375000   28.875000   12.375000
Si   48.125000   31.625000   12.375000
Si   46.750000   33.000000    8.250000
Si   44.000000   35.750000    8.250000
Si   48.125000   34.375000    9.625000
Si   45.375000   37.125000    9.625000
Si   44.000000   33.000000   11.000000
Si   46.750000   35.750000   11.000000
Si   45.375000   34.375000   12.375000
Si   48.125000   37.125000   12.375000
Si   46.750000   38.500000    8.250000
Si   44.000000   41.250000    8.250000
Si   48.125000   39.875000    9.625000
Si   45.375000   42.625000    9.625000
Si   44.000000   38.500000   11.000000
Si   46.750000   41.250000   11.000000
Si   45.375000   39.875000   12.375000
Si   48.125000   42.625000   12.375000
Si   46.750000   44.000000    8.250000
Si   44.000000   46.750000    8.250000
Si   48.125000   45.375000    9.625000
Si   45.375000   48.125000    9.625000
Si   44.000000   44.000000   11.000000
Si   46.750000   46.750000   11.000000
Si   45.375000   45.375000   12.375000
Si   48.125000   48.125000   12.375000
Si   46.750000   49.500000    8.250000
Si   44.000000   52.250000    8.250000
Si   48.125000   50.875000    9.625000
Si   45.375000   53.625000    9.625000
Si   44.000000   49.500000   11.000000
Si   46.750000   52.250000   11.000000
Si   45.375000   50.875000   12.375000
Si   48.125000   53.625000   12.375000
Si   52.250000    0.000000    8.250000
Si   49.500000    2.750000    8.250000
Si   53.625000    1.375000    9.625000
Si   50.875000    4.125000    9.625000
Si   49.500000    0.000000   11.000000
Si   52.250000    2.750000   11.000000
Si   50.875000    1.375000   12.375000
Si   53.625000    4.125000   12.375000
Si   52.250000    5.500000    8.250000
Si   49.500000    8.250000    8.250000
Si   53.625000    6.875000    9.625000
Si   50.875000    9.625000    9.625000
Si   49.500000    5.500000   11.000000
Si   52.250000    8.250000   11.000000
Si   50.875000    6.875000   12.375000
Si   53.625000    9.625000   12.375000
Si   52.250000   11.000000    8.250000
Si   49.500000   13.750000    8.250000
Si   53.625000   12.375000    9.625000
Si   50.875000   15.125000    9.625000
Si   49.500000   11.000000   11.000000
Si   52.250000   13.750000   11.000000
Si   50.875000   12.375000   12.375000
Si   53.625000   15.125000   12.375000
Si   52.250000   16.500000    8.250000
Si   49.500000   19.250000    8.250000
Si   53.625000   17.875000    9.625000
Si   50.875000   20.625000    9.625000
Si   49.500000   16.500000   11.000000
Si   52.250000   19.250000   11.000000
Si   50.875000   17.875000   12.375000
Si   53.625000   20.625000   12.375000
Si   52.250000   22.000000    8.250000
Si   49.500000   24.750000    8.250000
Si   53.625000   23.375000    9.625000
Si   50.875000   26.125000    9.625000
Si   49.500000   22.000000   11.000000
Si   52.250000   24.750000   11.000000
Si   50.875000   23.375000   12.375000
Si   53.625000   26.125000   12.375000
Si   52.250000   27.500000    8.250000
Si   49.500000   30.250000    8.250000
Si   53.625000   28.875000    9.625000
Si   50.875000   31.625000    9.625000
Si   49.500000   27.500000   11.000000
Si   52.250000   30.250000   11.000000
Si   50.875000   28.875000   12.375000
Si   53.625000   31.625000   12.375000
Si   52.250000   33.000000    8.250000
Si   49.500000   35.750000    8.250000
Si   53.625000   34.375000    9.625000
Si   50.875000   37.125000    9.625000
Si   49.500000   33.000000   11.000000
Si   52.250000   35.750000   11.000000
Si   50.875000   34.375000   12.375000
Si   53.625000   37.125000   12.375000
Si   52.250000   38.500000    8.250000
Si   49.500000   41.250000    8.250000
Si   53.625000   39.875000    9.625000
Si   50.875000   42.625000    9.625000
Si   49.500000   38.500000   11.000000
Si   52.250000   41.250000   11.000000
Si   50.875000   39.875000   12.375000
Si   53.625000   42.625000   12.375000
Si   52.250000   44.000000    8.250000
Si   49.500000   46.750000    8.250000
Si   53.625000   45.375000    9.625000
Si   50.875000   48.125000    9.625000
Si   49.500000   44.000000   11.000000
Si   52.250000   46.750000   11.000000
Si   50.875000   45.375000   12.375000
Si   53.625000   48.125000   12.375000
Si   52.250000   49.500000    8.250000
Si   49.500000   52.250000    8.250000
Si   53.625000   50.875000    9.625000
Si   50.875000   53.625000    9.625000
Si   49.500000   49.500000   11.000000
Si   52.250000   52.250000   11.000000
Si   50.875000   50.875000   12.375000
Si   53.625000   53.625000   12.375000
Si   55.000000    2.750000    8.250000
Si   55.000000    0.000000   11.000000
Si   55.000000    8.250000    8.250000
Si   55.000000    5.500000   11.000000
Si   55.000000   13.750000    8.250000
Si   55.000000   11.000000   11.000000
Si   55.000000   19.250000    8.250000
Si   55.000000   16.500000   11.000000
Si   55.000000   24.750000    8.250000
Si   55.000000   22.000000   11.000000
Si   55.000000   30.250000    8.250000
Si   55.000000   27.500000   11.000000
Si   55.000000   35.750000    8.250000
Si   55.000000   33.000000   11.000000
Si   55.000000   41.250000    8.250000
Si   55.000000   38.500000   11.000000
Si   55.000000   46.750000    8.250000
Si   55.000000   44.000000   11.000000
Si   55.000000   52.250000    8.250000
Si   55.000000   49.500000   11.000000
 H   55.859375    1.890625    7.390625
 H   55.859375    3.609375    9.109375
 H   -0.859375    1.890625    9.109375
 H   -0.859375    3.609375    7.390625
 H   -0.859375    0.859375   10.140625
 H   55.859375    0.859375   11.859375
 H   55.859375    7.390625    7.390625
 H   55.859375    9.109375    9.109375
 H   -0.859375    7.390625    9.109375
 H   -0.859375    9.109375    7.390625
 H   55.859375    4.640625   10.140625
 H   55.859375    6.359375   11.859375
 H   -0.859375    4.640625   11.859375
 H   -0.859375    6.359375   10.140625
 H   55.859375   12.890625    7.390625
 H   55.859375   14.609375    9.109375
 H   -0.859375   12.890625    9.109375
 H   -0.859375   14.609375    7.390625
 H   55.859375   10.140625   10.140625
 H   55.859375   11.859375   11.859375
 H   -0.859375   10.140625   11.859375
 H   -0.859375   11.859375   10.140625
 H   55.859375   18.390625    7.390625
 H   55.859375   20.109375    9.109375
 H   -0.859375   18.390625    9.109375
 H   -0.859375   20.109375    7.390625
 H   55.859375   15.640625   10.140625
 H   55.859375   17.359375   11.859375
 H   -0.859375   15.640625   11.859375
 H   -0.859375   17.359375   10.140625
 H   55.859375   23.890625    7.390625
 H   55.859375   25.609375    9.109375
 H   -0.859375   23.890625    9.109375
 H   -0.859375   25.609375    7.390625
 H   55.859375   21.140625   10.140625
 H   55.859375   22.859375   11.859375
 H   -0.859375   21.140625   11.859375
 H   -0.859375   22.859375   10.140625
 H   55.859375   29.390625    7.390625
 H   55.859375   31.109375    9.109375
 H   -0.859375   29.390625    9.109375
 H   -0.859375   31.109375    7.390625
 H   55.859375   26.640625   10.140625
 H   55.859375   28.359375   11.859375
 H   -0.859375   26.640625   11.859375
 H   -0.859375   28.359375   10.140625
 H   55.859375   34.890625    7.390625
 H   55.859375   36.609375    9.109375
 H   -0.859375   34.890625    9.109375
 H   -0.859375   36.609375    7.390625
 H   55.859375   32.140625   10.140625
 H   55.859375   33.859375   11.859375
 H   -0.859375   32.140625   11.859375
 H   -0.859375   33.859375   10.140625
 H   55.859375   40.390625    7.390625
 H   55.859375   42.109375    9.109375
 H   -0.859375   40.390625    9.109375
 H   -0.859375   42.109375    7.390625
 H   55.859375   37.640625   10.140625
 H   55.859375   39.359375   11.859375
 H   -0.859375   37.640625   11.859375
 H   -0.859375   39.359375   10.140625
 H   55.859375   45.890625    7.390625
 H   55.859375   47.609375    9.109375
 H   -0.859375   45.890625    9.109375
 H   -0.859375   47.609375    7.390625
 H   55.859375   43.140625   10.140625
 H   55.859375   44.859375   11.859375
 H   -0.859375   43.140625   11.859375
 H   -0.859375   44.859375   10.140625
 H   55.859375   51.390625    7.390625
 H   55.859375   53.109375    9.109375
 H   -0.859375   51.390625    9.109375
 H   -0.859375   53.109375    7.390625
 H   55.859375   48.640625   10.140625
 H   55.859375   50.359375   11.859375
 H   -0.859375   48.640625   11.859375
 H   -0.859375   50.359375   10.140625
Si    2.750000   55.000000    8.250000
Si    0.000000   55.000000   11.000000
Si    8.250000   55.000000    8.250000
Si    5.500000   55.000000   11.000000
Si   13.750000   55.000000    8.250000
Si   11.000000   55.000000   11.000000
Si   19.250000   55.000000    8.250000
Si   16.500000   55.000000   11.000000
Si   24.750000   55.000000    8.250000
Si   22.000000   55.000000   11.000000
Si   30.250000   55.000000    8.250000
Si   27.500000   55.000000   11.000000
Si   35.750000   55.000000    8.250000
Si   33.000000   55.000000   11.000000
Si   41.250000   55.000000    8.250000
Si   38.500000   55.000000   11.000000
Si   46.750000   55.000000    8.250000
Si   44.000000   55.000000   11.000000
Si   52.250000   55.000000    8.250000
Si   49.500000   55.000000   11.000000
 H    1.890625   -0.859375    9.109375
 H    3.609375   -0.859375    7.390625
 H    1.890625   55.859375    7.390625
 H    3.609375   55.859375    9.109375
 H    0.859375   -0.859375   10.140625
 H    0.859375   55.859375   11.859375
 H    7.390625   -0.859375    9.109375
 H    9.109375   -0.859375    7.390625
 H    7.390625   55.859375    7.390625
 H    9.109375   55.859375    9.109375
 H    4.640625   -0.859375   11.859375
 H    6.359375   -0.859375   10.140625
 H    6.359375   55.859375   11.859375
 H    4.640625   55.859375   10.140625
 H   12.890625   -0.859375    9.109375
 H   14.609375   -0.859375    7.390625
 H   12.890625   55.859375    7.390625
 H   14.609375   55.859375    9.109375
 H   10.140625   -0.859375   11.859375
 H   11.859375   -0.859375   10.140625
 H   11.859375   55.859375   11.859375
 H   10.140625   55.859375   10.140625
 H   18.390625   -0.859375    9.109375
 H   20.109375   -0.859375    7.390625
 H   18.390625   55.859375    7.390625
 H   20.109375   55.859375    9.109375
 H   15.640625   -0.859375   11.859375
 H   17.359375   -0.859375   10.140625
 H   17.359375   55.859375   11.859375
 H   15.640625   55.859375   10.140625
 H   23.890625   -0.859375    9.109375
 H   25.609375   -0.859375    7.390625
 H   23.890625   55.859375    7.390625
 H   25.609375   55.859375    9.109375
 H   21.140625   -0.859375   11.859375
 H   22.859375   -0.859375   10.140625
 H   22.859375   55.859375   11.859375
 H   21.140625   55.859375   10.140625
 H   29.390625   -0.859375    9.109375
 H   31.109375   -0.859375    7.390625
 H   29.390625   55.859375    7.390625
 H   31.109375   55.859375    9.109375
 H   26.640625   -0.859375   11.859375
 H   28.359375   -0.859375   10.140625
 H   28.359375   55.859375   11.859375
 H   26.640625   55.859375   10.140625
 H   34.890625   -0.859375    9.109375
 H   36.609375   -0.859375    7.390625
 H   34.890625   55.859375    7.390625
 H   36.609375   55.859375    9.109375
 H   32.140625   -0.859375   11.859375
 H   33.859375   -0.859375   10.140625
 H   33.859375   55.859375   11.859375
 H   32.140625   55.859375   10.140625
 H   40.390625   -0.859375    9.109375
 H   42.109375   -0.859375    7.390625
 H   40.390625   55.859375    7.390625
 H   42.109375   55.859375    9.109375
 H   37.640625   -0.859375   11.859375
 H   39.359375   -0.859375   10.140625
 H   39.359375   55.859375   11.859375
 H   37.640625   55.859375   10.140625
 H   45.890625   -0.859375    9.109375
 H   47.609375   -0.859375    7.390625
 H   45.890625   55.859375    7.390625
 H   47.609375   55.859375    9.109375
 H   43.140625   -0.859375   11.859375
 H   44.859375   -0.859375   10.140625
 H   44.859375   55.859375   11.859375
 H   43.140625   55.859375   10.140625
 H   51.390625   -0.859375    9.109375
 H   53.109375   -0.859375    7.390625
 H   51.390625   55.859375    7.390625
 H   53.109375   55.859375    9.109375
 H   48.640625   -0.859375   11.859375
 H   50.359375   -0.859375   10.140625
 H   50.359375   55.859375   11.859375
 H   48.640625   55.859375   10.140625
Si   55.000000   55.000000   11.000000
 H   -0.859375   -0.859375   11.859375
 H   55.859375   55.859375   11.859375
 H   54.140625   -0.859375   11.859375
 H   55.859375   -0.859375   10.140625
 H   -0.859375   54.140625   11.859375
 H   -0.859375   55.859375   10.140625
 H   54.140625   55.859375   10.140625
 H   55.859375   54.140625   10.140625
